data_crystal
 
_cell_length_a    23.71600
_cell_length_b    28.79600
_cell_length_c    17.46200
_cell_angle_alpha 89.92200
_cell_angle_beta  93.42100
_cell_angle_gamma 87.60000
 
_symmetry_space_group_name_Hall 'P 1'
_symmetry_space_group_name_H-M  'P 1'
 
loop_
_symmetry_equiv_pos_as_xyz
 'x,y,z' 
 
loop_
_atom_site_label
_atom_site_type_symbol
_atom_site_fract_x
_atom_site_fract_y
_atom_site_fract_z
_atom_site_charge
Cd         Cd      0.00159   0.31831   0.98508   0.9592332051
Cd         Cd      0.50113   0.31810   0.98445   0.9592332051
Cd         Cd      0.00504   0.18003   0.01662   0.9592332051
Cd         Cd      0.50527   0.17980   0.01620   0.9592332051
Cd         Cd      0.00286   0.43030   0.48441   0.9592332051
Cd         Cd      0.50293   0.43064   0.48404   0.9592332051
Cd         Cd      0.99834   0.06825   0.51627   0.9592332051
Cd         Cd      0.49804   0.06863   0.51611   0.9592332051
H          H       0.39605   0.27059   0.88920   0.1017527506
H          H       0.89608   0.27630   0.88702   0.1017527506
H          H       0.29233   0.36746   0.06934   0.1017527506
H          H       0.79347   0.36244   0.08159   0.1017527506
H          H       0.39716   0.36600   0.06630   0.1017527506
H          H       0.89853   0.36135   0.07803   0.1017527506
H          H       0.29095   0.26688   0.88535   0.1017527506
H          H       0.79071   0.27309   0.88256   0.1017527506
H          H       0.40235   0.23057   0.10630   0.1017527506
H          H       0.90393   0.22750   0.11500   0.1017527506
H          H       0.29468   0.13029   0.92946   0.1017527506
H          H       0.79281   0.14108   0.92100   0.1017527506
H          H       0.39914   0.13441   0.93020   0.1017527506
H          H       0.89798   0.14450   0.92199   0.1017527506
H          H       0.29740   0.23198   0.11184   0.1017527506
H          H       0.79877   0.22888   0.12189   0.1017527506
H          H       0.10072   0.45752   0.37354   0.1017527506
H          H       0.60042   0.45758   0.37156   0.1017527506
H          H       0.21872   0.40546   0.60074   0.1017527506
H          H       0.71856   0.40412   0.59779   0.1017527506
H          H       0.11322   0.40840   0.59677   0.1017527506
H          H       0.61295   0.40795   0.59439   0.1017527506
H          H       0.20541   0.45555   0.36627   0.1017527506
H          H       0.70508   0.45476   0.36364   0.1017527506
H          H       0.10889   0.01789   0.60169   0.1017527506
H          H       0.60867   0.01644   0.60020   0.1017527506
H          H       0.19994   0.12434   0.43249   0.1017527506
H          H       0.70043   0.12281   0.43173   0.1017527506
H          H       0.09579   0.11970   0.43292   0.1017527506
H          H       0.59619   0.11874   0.43220   0.1017527506
H          H       0.21418   0.01609   0.60570   0.1017527506
H          H       0.71392   0.01410   0.60411   0.1017527506
H          H       0.11228   0.19943   0.13307   0.1017527506
H          H       0.61326   0.18506   0.13763   0.1017527506
H          H       0.21055   0.16374   0.89922   0.1017527506
H          H       0.71044   0.18469   0.89699   0.1017527506
H          H       0.10563   0.16382   0.90341   0.1017527506
H          H       0.60553   0.18278   0.90050   0.1017527506
H          H       0.21763   0.19878   0.14044   0.1017527506
H          H       0.71891   0.18565   0.14509   0.1017527506
H          H       0.09942   0.29673   0.86900   0.1017527506
H          H       0.59954   0.31323   0.86738   0.1017527506
H          H       0.21726   0.32834   0.10244   0.1017527506
H          H       0.71807   0.31571   0.10772   0.1017527506
H          H       0.11220   0.32492   0.10135   0.1017527506
H          H       0.61276   0.31364   0.10450   0.1017527506
H          H       0.20369   0.30017   0.85885   0.1017527506
H          H       0.70438   0.31569   0.85965   0.1017527506
H          H       0.40049   0.04187   0.62746   0.1017527506
H          H       0.90068   0.04075   0.62702   0.1017527506
H          H       0.28227   0.09565   0.40156   0.1017527506
H          H       0.78256   0.09332   0.40020   0.1017527506
H          H       0.38771   0.09294   0.40534   0.1017527506
H          H       0.88800   0.09056   0.40420   0.1017527506
H          H       0.29601   0.04430   0.63534   0.1017527506
H          H       0.79601   0.04265   0.63440   0.1017527506
H          H       0.39272   0.48257   0.40184   0.1017527506
H          H       0.89265   0.48095   0.39864   0.1017527506
H          H       0.30073   0.37497   0.56805   0.1017527506
H          H       0.80043   0.37435   0.56631   0.1017527506
H          H       0.40491   0.37866   0.56714   0.1017527506
H          H       0.90466   0.37853   0.56634   0.1017527506
H          H       0.28738   0.48496   0.39789   0.1017527506
H          H       0.78726   0.48312   0.39400   0.1017527506
H          H       0.98711   0.29927   0.78573   0.1017527506
H          H       0.48661   0.29928   0.78614   0.1017527506
H          H       0.98140   0.24244   0.55626   0.1017527506
H          H       0.48205   0.24282   0.55640   0.1017527506
H          H       0.99716   0.15088   0.75060   0.1017527506
H          H       0.50249   0.15115   0.75056   0.1017527506
H          H       0.98819   0.32384   0.57952   0.3349682051
H          H       0.48787   0.32430   0.58004   0.3349682051
H          H       0.98945   0.34803   0.66739   0.3349682051
H          H       0.48871   0.34832   0.66806   0.3349682051
H          H       0.01416   0.19909   0.21565   0.1017527506
H          H       0.51377   0.19932   0.21499   0.1017527506
H          H       0.01859   0.25577   0.44518   0.1017527506
H          H       0.51794   0.25602   0.44450   0.1017527506
H          H       0.00645   0.34750   0.25094   0.1017527506
H          H       0.50539   0.34773   0.25023   0.1017527506
H          H       0.01196   0.17447   0.42187   0.3349682051
H          H       0.51245   0.17483   0.42151   0.3349682051
H          H       0.01076   0.15023   0.33398   0.3349682051
H          H       0.51033   0.15048   0.33379   0.3349682051
H          H       0.98390   0.45043   0.28590   0.1017527506
H          H       0.48252   0.45131   0.28710   0.1017527506
H          H       0.98441   0.00684   0.05618   0.1017527506
H          H       0.48566   0.00649   0.05702   0.1017527506
H          H       0.00204   0.09724   0.25011   0.1017527506
H          H       0.50443   0.09750   0.24990   0.1017527506
H          H       0.98586   0.42516   0.07972   0.3349682051
H          H       0.48128   0.42547   0.08034   0.3349682051
H          H       0.98719   0.40107   0.16784   0.3349682051
H          H       0.48521   0.40131   0.16881   0.3349682051
H          H       0.01714   0.04786   0.71436   0.1017527506
H          H       0.48947   0.04869   0.71120   0.1017527506
H          H       0.02001   0.49109   0.94400   0.1017527506
H          H       0.47861   0.49180   0.93891   0.1017527506
H          H       0.00436   0.40044   0.75033   0.1017527506
H          H       0.50869   0.40070   0.75053   0.1017527506
H          H       0.01839   0.07314   0.92098   0.3349682051
H          H       0.48087   0.07352   0.91655   0.3349682051
H          H       0.01731   0.09725   0.83235   0.3349682051
H          H       0.48496   0.09773   0.82911   0.3349682051
C          C       0.37097   0.29142   0.92785   0.1871782051
C          C       0.87125   0.29489   0.92869   0.1871782051
C          C       0.31332   0.34471   0.02900  -0.1837067949
C          C       0.81431   0.34220   0.03793  -0.1837067949
C          C       0.37189   0.34435   0.02752   0.1871782051
C          C       0.87288   0.34202   0.03610   0.1871782051
C          C       0.28209   0.31659   0.97804  -0.0114942949
C          C       0.78277   0.31732   0.98249  -0.0114942949
C          C       0.31240   0.28995   0.92583  -0.1837067949
C          C       0.81266   0.29358   0.92650  -0.1837067949
C          C       0.37641   0.20908   0.06816   0.1871782051
C          C       0.87727   0.20902   0.07324   0.1871782051
C          C       0.31630   0.15388   0.96888  -0.1837067949
C          C       0.81543   0.16147   0.96442  -0.1837067949
C          C       0.37482   0.15569   0.96924   0.1871782051
C          C       0.87396   0.16285   0.96485   0.1871782051
C          C       0.28624   0.18141   0.02027  -0.0114942949
C          C       0.78640   0.18529   0.02121  -0.0114942949
C          C       0.31796   0.20923   0.07120  -0.1837067949
C          C       0.81883   0.20923   0.07689  -0.1837067949
C          C       0.12874   0.44638   0.42254   0.1871782051
C          C       0.62849   0.44609   0.42031   0.1871782051
C          C       0.19455   0.41680   0.54850  -0.1837067949
C          C       0.69435   0.41574   0.54580  -0.1837067949
C          C       0.13585   0.41867   0.54724   0.1871782051
C          C       0.63567   0.41806   0.54485   0.1871782051
C          C       0.22181   0.43058   0.48352  -0.0114942949
C          C       0.72158   0.42951   0.48073  -0.0114942949
C          C       0.18722   0.44541   0.41929  -0.1837067949
C          C       0.68695   0.44465   0.41671  -0.1837067949
C          C       0.13128   0.04054   0.56493   0.1871782051
C          C       0.63114   0.03910   0.56356   0.1871782051
C          C       0.18210   0.09932   0.47009  -0.1837067949
C          C       0.68240   0.09780   0.46914  -0.1837067949
C          C       0.12362   0.09730   0.47040   0.1871782051
C          C       0.62388   0.09609   0.46958   0.1871782051
C          C       0.21693   0.07003   0.51875  -0.0114942949
C          C       0.71706   0.06824   0.51758  -0.0114942949
C          C       0.18993   0.04025   0.56726  -0.1837067949
C          C       0.68982   0.03849   0.56589  -0.1837067949
C          C       0.13607   0.19165   0.08273   0.1871782051
C          C       0.63684   0.18527   0.08580   0.1871782051
C          C       0.19095   0.17134   0.95289  -0.1837067949
C          C       0.69096   0.18440   0.95193  -0.1837067949
C          C       0.13240   0.17180   0.95427   0.1871782051
C          C       0.63249   0.18393   0.95321   0.1871782051
C          C       0.22382   0.18139   0.01991  -0.0114942949
C          C       0.72408   0.18524   0.02119  -0.0114942949
C          C       0.19479   0.19158   0.08606  -0.1837067949
C          C       0.69557   0.18581   0.08941  -0.1837067949
C          C       0.12745   0.30325   0.91929   0.1871782051
C          C       0.62779   0.31311   0.91901   0.1871782051
C          C       0.19301   0.32155   0.04896  -0.1837067949
C          C       0.69365   0.31534   0.05287  -0.1837067949
C          C       0.13462   0.31919   0.04918   0.1871782051
C          C       0.63509   0.31368   0.05168   0.1871782051
C          C       0.22001   0.31448   0.98026  -0.0114942949
C          C       0.72059   0.31574   0.98348  -0.0114942949
C          C       0.18562   0.30508   0.91432  -0.1837067949
C          C       0.68612   0.31448   0.91538  -0.1837067949
C          C       0.37247   0.05369   0.57890   0.1871782051
C          C       0.87261   0.05206   0.57810   0.1871782051
C          C       0.30648   0.08407   0.45356  -0.1837067949
C          C       0.80673   0.08188   0.45240  -0.1837067949
C          C       0.36518   0.08231   0.45474   0.1871782051
C          C       0.86543   0.08012   0.45369   0.1871782051
C          C       0.27932   0.06989   0.51845  -0.0114942949
C          C       0.77948   0.06791   0.51734  -0.0114942949
C          C       0.31402   0.05475   0.58238  -0.1837067949
C          C       0.81414   0.05297   0.58145  -0.1837067949
C          C       0.37013   0.45960   0.43785   0.1871782051
C          C       0.86997   0.45824   0.43498   0.1871782051
C          C       0.31880   0.40020   0.53108  -0.1837067949
C          C       0.81853   0.39939   0.52901  -0.1837067949
C          C       0.37732   0.40176   0.53047   0.1871782051
C          C       0.87705   0.40117   0.52890   0.1871782051
C          C       0.28421   0.43017   0.48327  -0.0114942949
C          C       0.78399   0.42898   0.48048  -0.0114942949
C          C       0.31146   0.46027   0.43558  -0.1837067949
C          C       0.81129   0.45875   0.43232  -0.1837067949
C          C       0.99681   0.21508   0.86166   0.6656582051
C          C       0.49831   0.21495   0.86163   0.6656582051
C          C       0.99239   0.22424   0.77705  -0.0114942949
C          C       0.49435   0.22434   0.77713  -0.0114942949
C          C       0.98991   0.19268   0.64843  -0.0114942949
C          C       0.49259   0.19299   0.64843  -0.0114942949
C          C       0.98317   0.27680   0.66677   0.3025132051
C          C       0.48371   0.27702   0.66708   0.3025132051
C          C       0.99253   0.15106   0.59702   0.6656582051
C          C       0.49516   0.15139   0.59699   0.6656582051
C          C       0.98735   0.26957   0.74696  -0.1837067949
C          C       0.48794   0.26967   0.74723  -0.1837067949
C          C       0.98454   0.23769   0.61830  -0.1837067949
C          C       0.48580   0.23799   0.61845  -0.1837067949
C          C       0.99350   0.18596   0.72781  -0.1837067949
C          C       0.49694   0.18618   0.72778  -0.1837067949
C          C       0.00681   0.28320   0.13990   0.6656582051
C          C       0.50614   0.28343   0.13913   0.6656582051
C          C       0.01024   0.27413   0.22450  -0.0114942949
C          C       0.50943   0.27435   0.22378  -0.0114942949
C          C       0.01176   0.30559   0.35310  -0.0114942949
C          C       0.51077   0.30585   0.35245  -0.0114942949
C          C       0.00000   0.22146   0.33466   0.3025132051
C          C       0.51721   0.22172   0.33399   0.3025132051
C          C       0.00881   0.34711   0.40467   0.6656582051
C          C       0.50766   0.34731   0.40422   0.6656582051
C          C       0.00000   0.22876   0.25450  -0.1837067949
C          C       0.51356   0.22899   0.25383  -0.1837067949
C          C       0.01623   0.26056   0.38316  -0.1837067949
C          C       0.51555   0.26082   0.38248  -0.1837067949
C          C       0.00930   0.31240   0.27375  -0.1837067949
C          C       0.50833   0.31263   0.27307  -0.1837067949
C          C       0.99372   0.03381   0.36129   0.6656582051
C          C       0.49387   0.03483   0.36149   0.6656582051
C          C       0.99246   0.02472   0.27681  -0.0114942949
C          C       0.49305   0.02532   0.27724  -0.0114942949
C          C       0.99438   0.05590   0.14807  -0.0114942949
C          C       0.49609   0.05582   0.14831  -0.0114942949
C          C       0.98315   0.47270   0.16680   0.3025132051
C          C       0.48259   0.47300   0.16783   0.3025132051
C          C       0.99943   0.09689   0.09614   0.6656582051
C          C       0.50163   0.09651   0.09597   0.6656582051
C          C       0.98622   0.47986   0.24694  -0.1837067949
C          C       0.48579   0.48048   0.24788  -0.1837067949
C          C       0.98703   0.01146   0.11818  -0.1837067949
C          C       0.48776   0.01141   0.11891  -0.1837067949
C          C       0.99682   0.06256   0.22741  -0.1837067949
C          C       0.49850   0.06284   0.22753  -0.1837067949
C          C       0.00814   0.46437   0.63900   0.6656582051
C          C       0.50431   0.46464   0.63838   0.6656582051
C          C       0.01073   0.47334   0.72350  -0.0114942949
C          C       0.49873   0.47379   0.72197  -0.0114942949
C          C       0.01118   0.44191   0.85232  -0.0114942949
C          C       0.49399   0.44232   0.84996  -0.0114942949
C          C       0.01996   0.02540   0.83352   0.3025132051
C          C       0.48263   0.02624   0.82903   0.3025132051
C          C       0.00753   0.40076   0.90427   0.6656582051
C          C       0.49645   0.40099   0.90240   0.6656582051
C          C       0.01606   0.01830   0.75332  -0.1837067949
C          C       0.48997   0.01899   0.75020  -0.1837067949
C          C       0.01721   0.48649   0.88200  -0.1837067949
C          C       0.48444   0.48716   0.87799  -0.1837067949
C          C       0.00840   0.43525   0.77290  -0.1837067949
C          C       0.50119   0.43561   0.77100  -0.1837067949
N          N       0.40051   0.31767   0.97830  -0.3009567949
N          N       0.90110   0.31838   0.98279  -0.3009567949
N          N       0.40457   0.18317   0.01762  -0.3009567949
N          N       0.90450   0.18653   0.01792  -0.3009567949
N          N       0.10326   0.43356   0.48559  -0.3009567949
N          N       0.60309   0.43340   0.48349  -0.3009567949
N          N       0.09843   0.06815   0.51688  -0.3009567949
N          N       0.59845   0.06699   0.51500  -0.3009567949
N          N       0.10513   0.18209   0.01795  -0.3009567949
N          N       0.60561   0.18442   0.01895  -0.3009567949
N          N       0.10216   0.31003   0.98559  -0.3009567949
N          N       0.60247   0.31250   0.98600  -0.3009567949
N          N       0.39784   0.06698   0.51604  -0.3009567949
N          N       0.89805   0.06512   0.51520  -0.3009567949
N          N       0.40279   0.43120   0.48487  -0.3009567949
N          N       0.90255   0.43038   0.48294  -0.3009567949
N          N       0.97577   0.32098   0.63460  -0.7253967949
N          N       0.47543   0.32121   0.63508  -0.7253967949
N          N       0.02446   0.17726   0.36681  -0.7253967949
N          N       0.52446   0.17754   0.36620  -0.7253967949
N          N       0.97413   0.42925   0.13502  -0.7253967949
N          N       0.47203   0.42971   0.13661  -0.7253967949
N          N       0.02865   0.06873   0.86516  -0.7253967949
N          N       0.47154   0.07015   0.85873  -0.7253967949
O          O       0.99496   0.24831   0.90980  -0.6182734615
O          O       0.49616   0.24807   0.91003  -0.6182734615
O          O       0.00213   0.17255   0.88394  -0.6182734615
O          O       0.50366   0.17241   0.88372  -0.6182734615
O          O       0.99498   0.11080   0.62906  -0.6182734615
O          O       0.49851   0.11114   0.62910  -0.6182734615
O          O       0.99243   0.15628   0.52461  -0.6169367949
O          O       0.49373   0.15655   0.52449  -0.6169367949
O          O       0.00536   0.24977   0.09210  -0.6182734615
O          O       0.50354   0.25015   0.09099  -0.6182734615
O          O       0.00545   0.32568   0.11732  -0.6182734615
O          O       0.50618   0.32588   0.11672  -0.6182734615
O          O       0.00741   0.38743   0.37290  -0.6182734615
O          O       0.50619   0.38770   0.37260  -0.6182734615
O          O       0.00752   0.34177   0.47684  -0.6169367949
O          O       0.50645   0.34186   0.47639  -0.6169367949
O          O       0.99259   0.00053   0.40960  -0.6182734615
O          O       0.49374   0.00171   0.41034  -0.6182734615
O          O       0.99487   0.07620   0.38339  -0.6182734615
O          O       0.49382   0.07734   0.38310  -0.6182734615
O          O       0.00778   0.13649   0.12791  -0.6182734615
O          O       0.51364   0.13562   0.12717  -0.6182734615
O          O       0.99484   0.09199   0.02370  -0.6169367949
O          O       0.49376   0.09196   0.02380  -0.6169367949
O          O       0.00752   0.49773   0.59047  -0.6182734615
O          O       0.50136   0.49793   0.58963  -0.6182734615
O          O       0.00751   0.42196   0.61684  -0.6182734615
O          O       0.51109   0.42228   0.61707  -0.6182734615
O          O       0.00488   0.36047   0.87283  -0.6182734615
O          O       0.50610   0.36081   0.87272  -0.6182734615
O          O       0.00727   0.40618   0.97649  -0.6169367949
O          O       0.48892   0.40616   0.97345  -0.6169367949
Cd         Cd      0.00159   0.81831   0.98508   0.9592332051
Cd         Cd      0.50113   0.81810   0.98445   0.9592332051
Cd         Cd      0.00504   0.68003   0.01662   0.9592332051
Cd         Cd      0.50527   0.67980   0.01620   0.9592332051
Cd         Cd      0.00286   0.93030   0.48441   0.9592332051
Cd         Cd      0.50293   0.93064   0.48404   0.9592332051
Cd         Cd      0.99834   0.56825   0.51627   0.9592332051
Cd         Cd      0.49804   0.56863   0.51611   0.9592332051
H          H       0.39605   0.77059   0.88920   0.1017527506
H          H       0.89608   0.77630   0.88702   0.1017527506
H          H       0.29233   0.86746   0.06934   0.1017527506
H          H       0.79347   0.86244   0.08159   0.1017527506
H          H       0.39716   0.86600   0.06630   0.1017527506
H          H       0.89853   0.86135   0.07803   0.1017527506
H          H       0.29095   0.76688   0.88535   0.1017527506
H          H       0.79071   0.77309   0.88256   0.1017527506
H          H       0.40235   0.73057   0.10630   0.1017527506
H          H       0.90393   0.72750   0.11500   0.1017527506
H          H       0.29468   0.63029   0.92946   0.1017527506
H          H       0.79281   0.64108   0.92100   0.1017527506
H          H       0.39914   0.63441   0.93020   0.1017527506
H          H       0.89798   0.64450   0.92199   0.1017527506
H          H       0.29740   0.73198   0.11184   0.1017527506
H          H       0.79877   0.72888   0.12189   0.1017527506
H          H       0.10072   0.95752   0.37354   0.1017527506
H          H       0.60042   0.95757   0.37156   0.1017527506
H          H       0.21872   0.90546   0.60074   0.1017527506
H          H       0.71856   0.90412   0.59779   0.1017527506
H          H       0.11322   0.90840   0.59677   0.1017527506
H          H       0.61295   0.90795   0.59439   0.1017527506
H          H       0.20541   0.95555   0.36627   0.1017527506
H          H       0.70508   0.95476   0.36364   0.1017527506
H          H       0.10889   0.51789   0.60169   0.1017527506
H          H       0.60867   0.51644   0.60020   0.1017527506
H          H       0.19994   0.62434   0.43249   0.1017527506
H          H       0.70043   0.62281   0.43173   0.1017527506
H          H       0.09579   0.61970   0.43292   0.1017527506
H          H       0.59619   0.61874   0.43220   0.1017527506
H          H       0.21418   0.51609   0.60570   0.1017527506
H          H       0.71392   0.51410   0.60411   0.1017527506
H          H       0.11228   0.69943   0.13307   0.1017527506
H          H       0.61326   0.68506   0.13763   0.1017527506
H          H       0.21055   0.66374   0.89922   0.1017527506
H          H       0.71044   0.68469   0.89699   0.1017527506
H          H       0.10563   0.66382   0.90341   0.1017527506
H          H       0.60553   0.68278   0.90050   0.1017527506
H          H       0.21763   0.69878   0.14044   0.1017527506
H          H       0.71891   0.68565   0.14509   0.1017527506
H          H       0.09942   0.79673   0.86900   0.1017527506
H          H       0.59954   0.81323   0.86738   0.1017527506
H          H       0.21726   0.82834   0.10244   0.1017527506
H          H       0.71807   0.81571   0.10772   0.1017527506
H          H       0.11220   0.82492   0.10135   0.1017527506
H          H       0.61276   0.81364   0.10450   0.1017527506
H          H       0.20369   0.80017   0.85885   0.1017527506
H          H       0.70438   0.81569   0.85965   0.1017527506
H          H       0.40049   0.54187   0.62746   0.1017527506
H          H       0.90068   0.54075   0.62702   0.1017527506
H          H       0.28227   0.59565   0.40156   0.1017527506
H          H       0.78256   0.59332   0.40020   0.1017527506
H          H       0.38771   0.59294   0.40534   0.1017527506
H          H       0.88800   0.59057   0.40420   0.1017527506
H          H       0.29601   0.54429   0.63534   0.1017527506
H          H       0.79601   0.54265   0.63440   0.1017527506
H          H       0.39272   0.98257   0.40184   0.1017527506
H          H       0.89265   0.98095   0.39864   0.1017527506
H          H       0.30073   0.87497   0.56805   0.1017527506
H          H       0.80043   0.87435   0.56631   0.1017527506
H          H       0.40491   0.87866   0.56714   0.1017527506
H          H       0.90466   0.87853   0.56634   0.1017527506
H          H       0.28738   0.98496   0.39789   0.1017527506
H          H       0.78726   0.98312   0.39400   0.1017527506
H          H       0.98711   0.79927   0.78573   0.1017527506
H          H       0.48661   0.79928   0.78614   0.1017527506
H          H       0.98140   0.74245   0.55626   0.1017527506
H          H       0.48205   0.74282   0.55640   0.1017527506
H          H       0.99716   0.65088   0.75060   0.1017527506
H          H       0.50249   0.65115   0.75056   0.1017527506
H          H       0.98819   0.82384   0.57952   0.3349682051
H          H       0.48787   0.82430   0.58004   0.3349682051
H          H       0.98945   0.84803   0.66739   0.3349682051
H          H       0.48871   0.84832   0.66806   0.3349682051
H          H       0.01416   0.69909   0.21565   0.1017527506
H          H       0.51377   0.69932   0.21499   0.1017527506
H          H       0.01859   0.75577   0.44518   0.1017527506
H          H       0.51794   0.75602   0.44450   0.1017527506
H          H       0.00645   0.84750   0.25094   0.1017527506
H          H       0.50539   0.84773   0.25023   0.1017527506
H          H       0.01196   0.67447   0.42187   0.3349682051
H          H       0.51245   0.67483   0.42151   0.3349682051
H          H       0.01076   0.65023   0.33398   0.3349682051
H          H       0.51033   0.65048   0.33379   0.3349682051
H          H       0.98390   0.95043   0.28590   0.1017527506
H          H       0.48252   0.95131   0.28710   0.1017527506
H          H       0.98441   0.50684   0.05618   0.1017527506
H          H       0.48566   0.50649   0.05702   0.1017527506
H          H       0.00204   0.59724   0.25011   0.1017527506
H          H       0.50443   0.59750   0.24990   0.1017527506
H          H       0.98586   0.92517   0.07972   0.3349682051
H          H       0.48128   0.92547   0.08034   0.3349682051
H          H       0.98719   0.90107   0.16784   0.3349682051
H          H       0.48521   0.90131   0.16881   0.3349682051
H          H       0.01714   0.54786   0.71436   0.1017527506
H          H       0.48947   0.54869   0.71120   0.1017527506
H          H       0.02001   0.99109   0.94400   0.1017527506
H          H       0.47861   0.99180   0.93891   0.1017527506
H          H       0.00436   0.90044   0.75033   0.1017527506
H          H       0.50869   0.90070   0.75053   0.1017527506
H          H       0.01839   0.57314   0.92098   0.3349682051
H          H       0.48087   0.57352   0.91655   0.3349682051
H          H       0.01731   0.59726   0.83235   0.3349682051
H          H       0.48496   0.59774   0.82911   0.3349682051
C          C       0.37097   0.79142   0.92785   0.1871782051
C          C       0.87125   0.79489   0.92869   0.1871782051
C          C       0.31332   0.84471   0.02900  -0.1837067949
C          C       0.81431   0.84220   0.03793  -0.1837067949
C          C       0.37189   0.84435   0.02752   0.1871782051
C          C       0.87288   0.84202   0.03610   0.1871782051
C          C       0.28209   0.81659   0.97804  -0.0114942949
C          C       0.78277   0.81732   0.98249  -0.0114942949
C          C       0.31240   0.78994   0.92583  -0.1837067949
C          C       0.81266   0.79358   0.92650  -0.1837067949
C          C       0.37641   0.70908   0.06816   0.1871782051
C          C       0.87727   0.70902   0.07324   0.1871782051
C          C       0.31630   0.65387   0.96888  -0.1837067949
C          C       0.81543   0.66147   0.96442  -0.1837067949
C          C       0.37482   0.65569   0.96924   0.1871782051
C          C       0.87396   0.66285   0.96485   0.1871782051
C          C       0.28624   0.68140   0.02027  -0.0114942949
C          C       0.78640   0.68529   0.02121  -0.0114942949
C          C       0.31796   0.70923   0.07120  -0.1837067949
C          C       0.81883   0.70923   0.07689  -0.1837067949
C          C       0.12874   0.94638   0.42254   0.1871782051
C          C       0.62849   0.94609   0.42031   0.1871782051
C          C       0.19455   0.91680   0.54850  -0.1837067949
C          C       0.69435   0.91574   0.54580  -0.1837067949
C          C       0.13585   0.91868   0.54724   0.1871782051
C          C       0.63567   0.91806   0.54485   0.1871782051
C          C       0.22181   0.93058   0.48352  -0.0114942949
C          C       0.72158   0.92951   0.48073  -0.0114942949
C          C       0.18722   0.94541   0.41929  -0.1837067949
C          C       0.68695   0.94465   0.41671  -0.1837067949
C          C       0.13128   0.54055   0.56493   0.1871782051
C          C       0.63114   0.53910   0.56356   0.1871782051
C          C       0.18210   0.59932   0.47009  -0.1837067949
C          C       0.68240   0.59779   0.46914  -0.1837067949
C          C       0.12362   0.59730   0.47040   0.1871782051
C          C       0.62388   0.59609   0.46958   0.1871782051
C          C       0.21693   0.57003   0.51875  -0.0114942949
C          C       0.71706   0.56824   0.51758  -0.0114942949
C          C       0.18993   0.54025   0.56726  -0.1837067949
C          C       0.68982   0.53848   0.56589  -0.1837067949
C          C       0.13607   0.69165   0.08273   0.1871782051
C          C       0.63684   0.68527   0.08580   0.1871782051
C          C       0.19095   0.67134   0.95289  -0.1837067949
C          C       0.69096   0.68440   0.95193  -0.1837067949
C          C       0.13240   0.67180   0.95427   0.1871782051
C          C       0.63249   0.68393   0.95321   0.1871782051
C          C       0.22382   0.68139   0.01991  -0.0114942949
C          C       0.72408   0.68524   0.02119  -0.0114942949
C          C       0.19479   0.69158   0.08606  -0.1837067949
C          C       0.69557   0.68580   0.08941  -0.1837067949
C          C       0.12745   0.80325   0.91929   0.1871782051
C          C       0.62779   0.81312   0.91901   0.1871782051
C          C       0.19301   0.82155   0.04896  -0.1837067949
C          C       0.69365   0.81534   0.05287  -0.1837067949
C          C       0.13462   0.81919   0.04918   0.1871782051
C          C       0.63509   0.81368   0.05168   0.1871782051
C          C       0.22001   0.81448   0.98026  -0.0114942949
C          C       0.72059   0.81574   0.98348  -0.0114942949
C          C       0.18562   0.80508   0.91432  -0.1837067949
C          C       0.68612   0.81448   0.91538  -0.1837067949
C          C       0.37247   0.55369   0.57890   0.1871782051
C          C       0.87261   0.55206   0.57810   0.1871782051
C          C       0.30648   0.58407   0.45356  -0.1837067949
C          C       0.80673   0.58188   0.45240  -0.1837067949
C          C       0.36518   0.58231   0.45474   0.1871782051
C          C       0.86543   0.58012   0.45369   0.1871782051
C          C       0.27932   0.56988   0.51845  -0.0114942949
C          C       0.77948   0.56791   0.51734  -0.0114942949
C          C       0.31402   0.55475   0.58238  -0.1837067949
C          C       0.81414   0.55297   0.58145  -0.1837067949
C          C       0.37013   0.95960   0.43785   0.1871782051
C          C       0.86997   0.95824   0.43498   0.1871782051
C          C       0.31880   0.90020   0.53108  -0.1837067949
C          C       0.81853   0.89939   0.52901  -0.1837067949
C          C       0.37732   0.90176   0.53047   0.1871782051
C          C       0.87705   0.90117   0.52890   0.1871782051
C          C       0.28421   0.93017   0.48327  -0.0114942949
C          C       0.78399   0.92898   0.48048  -0.0114942949
C          C       0.31146   0.96027   0.43558  -0.1837067949
C          C       0.81129   0.95876   0.43232  -0.1837067949
C          C       0.99681   0.71508   0.86166   0.6656582051
C          C       0.49831   0.71496   0.86163   0.6656582051
C          C       0.99239   0.72424   0.77705  -0.0114942949
C          C       0.49435   0.72434   0.77713  -0.0114942949
C          C       0.98991   0.69268   0.64843  -0.0114942949
C          C       0.49259   0.69299   0.64843  -0.0114942949
C          C       0.98317   0.77680   0.66677   0.3025132051
C          C       0.48371   0.77702   0.66708   0.3025132051
C          C       0.99253   0.65106   0.59702   0.6656582051
C          C       0.49516   0.65139   0.59699   0.6656582051
C          C       0.98735   0.76957   0.74696  -0.1837067949
C          C       0.48794   0.76967   0.74723  -0.1837067949
C          C       0.98454   0.73769   0.61830  -0.1837067949
C          C       0.48580   0.73799   0.61845  -0.1837067949
C          C       0.99350   0.68596   0.72781  -0.1837067949
C          C       0.49694   0.68618   0.72778  -0.1837067949
C          C       0.00681   0.78320   0.13990   0.6656582051
C          C       0.50614   0.78343   0.13913   0.6656582051
C          C       0.01024   0.77413   0.22450  -0.0114942949
C          C       0.50943   0.77435   0.22378  -0.0114942949
C          C       0.01176   0.80559   0.35310  -0.0114942949
C          C       0.51077   0.80585   0.35245  -0.0114942949
C          C       0.00000   0.72146   0.33466   0.3025132051
C          C       0.51721   0.72172   0.33399   0.3025132051
C          C       0.00881   0.84711   0.40467   0.6656582051
C          C       0.50766   0.84731   0.40422   0.6656582051
C          C       0.00000   0.72876   0.25450  -0.1837067949
C          C       0.51356   0.72900   0.25383  -0.1837067949
C          C       0.01623   0.76056   0.38316  -0.1837067949
C          C       0.51555   0.76082   0.38248  -0.1837067949
C          C       0.00930   0.81240   0.27375  -0.1837067949
C          C       0.50833   0.81263   0.27307  -0.1837067949
C          C       0.99372   0.53381   0.36129   0.6656582051
C          C       0.49387   0.53483   0.36149   0.6656582051
C          C       0.99246   0.52472   0.27681  -0.0114942949
C          C       0.49305   0.52532   0.27724  -0.0114942949
C          C       0.99438   0.55590   0.14807  -0.0114942949
C          C       0.49609   0.55582   0.14831  -0.0114942949
C          C       0.98315   0.97270   0.16680   0.3025132051
C          C       0.48259   0.97300   0.16783   0.3025132051
C          C       0.99943   0.59689   0.09614   0.6656582051
C          C       0.50163   0.59651   0.09597   0.6656582051
C          C       0.98622   0.97986   0.24694  -0.1837067949
C          C       0.48579   0.98048   0.24788  -0.1837067949
C          C       0.98703   0.51146   0.11818  -0.1837067949
C          C       0.48776   0.51141   0.11891  -0.1837067949
C          C       0.99682   0.56256   0.22741  -0.1837067949
C          C       0.49850   0.56285   0.22753  -0.1837067949
C          C       0.00814   0.96437   0.63900   0.6656582051
C          C       0.50431   0.96464   0.63838   0.6656582051
C          C       0.01073   0.97334   0.72350  -0.0114942949
C          C       0.49873   0.97379   0.72197  -0.0114942949
C          C       0.01118   0.94191   0.85232  -0.0114942949
C          C       0.49399   0.94232   0.84996  -0.0114942949
C          C       0.01996   0.52540   0.83352   0.3025132051
C          C       0.48263   0.52624   0.82903   0.3025132051
C          C       0.00753   0.90076   0.90427   0.6656582051
C          C       0.49645   0.90099   0.90240   0.6656582051
C          C       0.01606   0.51830   0.75332  -0.1837067949
C          C       0.48997   0.51899   0.75020  -0.1837067949
C          C       0.01721   0.98649   0.88200  -0.1837067949
C          C       0.48444   0.98716   0.87799  -0.1837067949
C          C       0.00840   0.93525   0.77290  -0.1837067949
C          C       0.50119   0.93561   0.77100  -0.1837067949
N          N       0.40051   0.81767   0.97830  -0.3009567949
N          N       0.90110   0.81838   0.98279  -0.3009567949
N          N       0.40457   0.68317   0.01762  -0.3009567949
N          N       0.90450   0.68653   0.01792  -0.3009567949
N          N       0.10326   0.93356   0.48559  -0.3009567949
N          N       0.60309   0.93340   0.48349  -0.3009567949
N          N       0.09843   0.56815   0.51688  -0.3009567949
N          N       0.59845   0.56699   0.51500  -0.3009567949
N          N       0.10513   0.68209   0.01795  -0.3009567949
N          N       0.60561   0.68442   0.01895  -0.3009567949
N          N       0.10216   0.81003   0.98559  -0.3009567949
N          N       0.60247   0.81250   0.98600  -0.3009567949
N          N       0.39784   0.56698   0.51604  -0.3009567949
N          N       0.89805   0.56511   0.51520  -0.3009567949
N          N       0.40279   0.93120   0.48487  -0.3009567949
N          N       0.90255   0.93038   0.48294  -0.3009567949
N          N       0.97577   0.82098   0.63460  -0.7253967949
N          N       0.47543   0.82121   0.63508  -0.7253967949
N          N       0.02446   0.67727   0.36681  -0.7253967949
N          N       0.52446   0.67754   0.36620  -0.7253967949
N          N       0.97413   0.92925   0.13502  -0.7253967949
N          N       0.47203   0.92971   0.13661  -0.7253967949
N          N       0.02865   0.56873   0.86516  -0.7253967949
N          N       0.47154   0.57015   0.85873  -0.7253967949
O          O       0.99496   0.74831   0.90980  -0.6182734615
O          O       0.49616   0.74806   0.91003  -0.6182734615
O          O       0.00213   0.67255   0.88394  -0.6182734615
O          O       0.50366   0.67241   0.88372  -0.6182734615
O          O       0.99498   0.61080   0.62906  -0.6182734615
O          O       0.49851   0.61114   0.62910  -0.6182734615
O          O       0.99243   0.65628   0.52461  -0.6169367949
O          O       0.49373   0.65655   0.52449  -0.6169367949
O          O       0.00536   0.74977   0.09210  -0.6182734615
O          O       0.50354   0.75015   0.09099  -0.6182734615
O          O       0.00545   0.82568   0.11732  -0.6182734615
O          O       0.50618   0.82588   0.11672  -0.6182734615
O          O       0.00741   0.88743   0.37290  -0.6182734615
O          O       0.50619   0.88770   0.37260  -0.6182734615
O          O       0.00752   0.84177   0.47684  -0.6169367949
O          O       0.50645   0.84186   0.47639  -0.6169367949
O          O       0.99259   0.50052   0.40960  -0.6182734615
O          O       0.49374   0.50172   0.41034  -0.6182734615
O          O       0.99487   0.57620   0.38339  -0.6182734615
O          O       0.49382   0.57734   0.38310  -0.6182734615
O          O       0.00778   0.63649   0.12791  -0.6182734615
O          O       0.51364   0.63562   0.12717  -0.6182734615
O          O       0.99484   0.59199   0.02370  -0.6169367949
O          O       0.49376   0.59196   0.02380  -0.6169367949
O          O       0.00752   0.99773   0.59047  -0.6182734615
O          O       0.50136   0.99793   0.58963  -0.6182734615
O          O       0.00751   0.92196   0.61684  -0.6182734615
O          O       0.51109   0.92228   0.61707  -0.6182734615
O          O       0.00488   0.86047   0.87283  -0.6182734615
O          O       0.50610   0.86081   0.87272  -0.6182734615
O          O       0.00727   0.90618   0.97649  -0.6169367949
O          O       0.48892   0.90616   0.97345  -0.6169367949
